*Heading
** Job name: Job-2 Model name: Thermal
** Generated by: Abaqus/CAE 2024.HF2
*Preprint, echo=NO, model=NO, history=NO, contact=NO
**
** PARTS
**
*Part, name=Part-1
*Node
      1,       -13.75,         -7.5,           0.
      2,       -23.75,         6.25,           0.
      3,       -13.75,         12.5,           0.
      4,         -2.5,           5.,           0.
      5,         8.75,          7.5,           0.
      6,        16.25,        16.25,           0.
      7,   22.2686119,   11.0911894,           0.
      8,   22.2686119,        -17.5,           0.
      9,           5.,        -6.25,           0.
     10,  -15.1785717,  -5.53571415,           0.
     11,  -16.6071434,  -3.57142854,           0.
     12,  -18.0357151,  -1.60714281,           0.
     13,  -19.4642849,  0.357142866,           0.
     14,  -20.8928566,   2.32142854,           0.
     15,  -22.3214283,   4.28571415,           0.
     16,       -21.25,       7.8125,           0.
     17,       -18.75,        9.375,           0.
     18,       -16.25,      10.9375,           0.
     19,        -11.5,          11.,           0.
     20,        -9.25,          9.5,           0.
** ... 564 like lines cut
*Element, type=C3D8
  1,  59,  60,  95,  96, 205, 206, 241, 242
  2, 141, 113,  82, 114, 287, 259, 228, 260
  3,  24,  23,  70,  71, 170, 169, 216, 217
  4, 123,  99, 105, 126, 269, 245, 251, 272
  5,  32,  31,  56,  61, 178, 177, 202, 207
  6,  99,  98,  63,  62, 245, 244, 209, 208
  7,  60,  57, 143,  95, 206, 203, 289, 241
  8,  54,  55,  87,  88, 200, 201, 233, 234
  9,  21,  20,  58,  57, 167, 166, 204, 203
 10,  51,  52,  15,  14, 197, 198, 161, 160
 11,   2,  15,  52,  16, 148, 161, 198, 162
 12,  81,  91,  94,  58, 227, 237, 240, 204
 13,  18,  81,  19,   3, 164, 227, 165, 149
 14,  14,  13,  54,  51, 160, 159, 200, 197
 15,  55,  54,  13,  12, 201, 200, 159, 158
 16, 118,  90,  50,  83, 264, 236, 196, 229
 17,  50,  49,  84,  83, 196, 195, 230, 229
 18,  25,  24,  71,  69, 171, 170, 217, 215
 19,  28,  27,  73,  92, 174, 173, 219, 238
 20,  92,  29,   6,  28, 238, 175, 152, 174
** ... 340 like lines cut
*Nset, nset=Set-1, generate
   1,  584,    1
*Elset, elset=Set-1, generate
   1,  360,    1
*Nset, nset=temp_left
   7,   8,  31,  32,  33,  34,  35,  36,  37,  38,  39, 153, 154, 177, 178, 179
 180, 181, 182, 183, 184, 185, 299, 300, 323, 324, 325, 326, 327, 328, 329, 330
 331, 445, 446, 469, 470, 471, 472, 473, 474, 475, 476, 477
*Elset, elset=temp_left
   5,  22,  23,  24,  28,  29,  30,  51,  52,  54, 125, 142, 143, 144, 148, 149
 150, 171, 172, 174, 245, 262, 263, 264, 268, 269, 270, 291, 292, 294
*Nset, nset=temp_right
   2,   3,  16,  17,  18, 148, 149, 162, 163, 164, 294, 295, 308, 309, 310, 440
 441, 454, 455, 456
*Elset, elset=temp_right
  11,  13,  40,  71, 131, 133, 160, 191, 251, 253, 280, 311
*Nset, nset=insulation
   1,   2,   3,   4,   5,   6,   7,   8,   9,  10,  11,  12,  13,  14,  15,  16
  17,  18,  19,  20,  21,  22,  23,  24,  25,  26,  27,  28,  29,  30,  31,  32
  33,  34,  35,  36,  37,  38,  39,  40,  41,  42,  43,  44,  45,  46,  47,  48
  49,  50,  51,  52,  53,  54,  55,  56,  57,  58,  59,  60,  61,  62,  63,  64
  65,  66,  67,  68,  69,  70,  71,  72,  73,  74,  75,  76,  77,  78,  79,  80
  81,  82,  83,  84,  85,  86,  87,  88,  89,  90,  91,  92,  93,  94,  95,  96
  97,  98,  99, 100, 101, 102, 103, 104, 105, 106, 107, 108, 109, 110, 111, 112
 113, 114, 115, 116, 117, 118, 119, 120, 121, 122, 123, 124, 125, 126, 127, 128
 129, 130, 131, 132, 133, 134, 135, 136, 137, 138, 139, 140, 141, 142, 143, 144
 145, 146, 147, 148, 149, 150, 151, 152, 154, 155, 156, 157, 158, 159, 160, 161
 165, 166, 167, 168, 169, 170, 171, 172, 173, 174, 186, 187, 188, 189, 190, 191
 192, 193, 194, 195, 196, 293, 294, 295, 296, 297, 298, 300, 301, 302, 303, 304
 305, 306, 307, 311, 312, 313, 314, 315, 316, 317, 318, 319, 320, 332, 333, 334
 335, 336, 337, 338, 339, 340, 341, 342, 439, 440, 441, 442, 443, 444, 445, 446
 447, 448, 449, 450, 451, 452, 453, 454, 455, 456, 457, 458, 459, 460, 461, 462
 463, 464, 465, 466, 467, 468, 469, 470, 471, 472, 473, 474, 475, 476, 477, 478
 479, 480, 481, 482, 483, 484, 485, 486, 487, 488, 489, 490, 491, 492, 493, 494
 495, 496, 497, 498, 499, 500, 501, 502, 503, 504, 505, 506, 507, 508, 509, 510
 511, 512, 513, 514, 515, 516, 517, 518, 519, 520, 521, 522, 523, 524, 525, 526
 527, 528, 529, 530, 531, 532, 533, 534, 535, 536, 537, 538, 539, 540, 541, 542
 543, 544, 545, 546, 547, 548, 549, 550, 551, 552, 553, 554, 555, 556, 557, 558
 559, 560, 561, 562, 563, 564, 565, 566, 567, 568, 569, 570, 571, 572, 573, 574
 575, 576, 577, 578, 579, 580, 581, 582, 583, 584
*Elset, elset=insulation
   1,   2,   3,   4,   5,   6,   7,   8,   9,  10,  11,  12,  13,  14,  15,  16
  17,  18,  19,  20,  21,  22,  23,  24,  25,  26,  27,  28,  29,  30,  31,  32
  33,  34,  35,  36,  37,  38,  39,  40,  41,  42,  43,  44,  45,  46,  47,  48
  49,  50,  51,  52,  53,  54,  55,  56,  57,  58,  59,  60,  61,  62,  63,  64
  65,  66,  67,  68,  69,  70,  71,  72,  73,  74,  75,  76,  77,  78,  79,  80
  81,  82,  83,  84,  85,  86,  87,  88,  89,  90,  91,  92,  93,  94,  95,  96
  97,  98,  99, 100, 101, 102, 103, 104, 105, 106, 107, 108, 109, 110, 111, 112
 113, 114, 115, 116, 117, 118, 119, 120, 123, 129, 130, 131, 133, 134, 135, 137
 138, 139, 140, 145, 146, 147, 148, 152, 158, 162, 166, 167, 168, 169, 170, 176
 178, 180, 182, 184, 186, 188, 192, 199, 241, 242, 243, 244, 245, 246, 247, 248
 249, 250, 251, 252, 253, 254, 255, 256, 257, 258, 259, 260, 261, 262, 263, 264
 265, 266, 267, 268, 269, 270, 271, 272, 273, 274, 275, 276, 277, 278, 279, 280
 281, 282, 283, 284, 285, 286, 287, 288, 289, 290, 291, 292, 293, 294, 295, 296
 297, 298, 299, 300, 301, 302, 303, 304, 305, 306, 307, 308, 309, 310, 311, 312
 313, 314, 315, 316, 317, 318, 319, 320, 321, 322, 323, 324, 325, 326, 327, 328
 329, 330, 331, 332, 333, 334, 335, 336, 337, 338, 339, 340, 341, 342, 343, 344
 345, 346, 347, 348, 349, 350, 351, 352, 353, 354, 355, 356, 357, 358, 359, 360
** Section: Section-1
*Solid Section, elset=Set-1, material=Material-1
,
*End Part
**  
**
** ASSEMBLY
**
*Assembly, name=Assembly
**  
*Instance, name=Part-1-1, part=Part-1
*End Instance
**  
*Nset, nset=Set-1, instance=Part-1-1, generate
 439,  584,    1
*Elset, elset=Set-1, instance=Part-1-1, generate
 241,  360,    1
*Nset, nset=Set-2, instance=Part-1-1
   7,   8,  31,  32,  33,  34,  35,  36,  37,  38,  39, 153, 154, 177, 178, 179
 180, 181, 182, 183, 184, 185, 299, 300, 323, 324, 325, 326, 327, 328, 329, 330
 331, 445, 446, 469, 470, 471, 472, 473, 474, 475, 476, 477
*Elset, elset=Set-2, instance=Part-1-1
   5,  22,  23,  24,  28,  29,  30,  51,  52,  54, 125, 142, 143, 144, 148, 149
 150, 171, 172, 174, 245, 262, 263, 264, 268, 269, 270, 291, 292, 294
*Nset, nset=Set-3, instance=Part-1-1
   2,   3,  16,  17,  18, 148, 149, 162, 163, 164, 294, 295, 308, 309, 310, 440
 441, 454, 455, 456
*Elset, elset=Set-3, instance=Part-1-1
  11,  13,  40,  71, 131, 133, 160, 191, 251, 253, 280, 311
*Elset, elset=_Surf-1_S3, internal, instance=Part-1-1
   3,   9,  17,  18,  19,  50,  58,  60, 123, 129, 137, 138, 139, 170, 178, 180
 243, 249, 257, 258, 259, 290, 298, 300
*Elset, elset=_Surf-1_S5, internal, instance=Part-1-1
  13,  20,  47,  48,  49,  56,  64,  72, 133, 140, 167, 168, 169, 176, 184, 192
 253, 260, 287, 288, 289, 296, 304, 312
*Elset, elset=_Surf-1_S6, internal, instance=Part-1-1
  22,  25,  26,  28,  32,  46, 142, 145, 146, 148, 152, 166, 262, 265, 266, 268
 272, 286
*Elset, elset=_Surf-1_S4, internal, instance=Part-1-1
  20,  21,  27,  62,  66,  68,  79, 140, 141, 147, 182, 186, 188, 199, 260, 261
 267, 302, 306, 308, 319
*Elset, elset=_Surf-1_S2, internal, instance=Part-1-1, generate
 241,  360,    1
*Elset, elset=_Surf-1_S1, internal, instance=Part-1-1, generate
   1,  120,    1
*Surface, type=ELEMENT, name=Surf-1
_Surf-1_S3, S3
_Surf-1_S5, S5
_Surf-1_S6, S6
_Surf-1_S4, S4
_Surf-1_S2, S2
_Surf-1_S1, S1
*End Assembly
** 
** MATERIALS
** 
*Material, name=Material-1
*Conductivity
10.,
** ----------------------------------------------------------------
** 
** STEP: Step-1
** 
*Step, name=Step-1, nlgeom=NO
*Heat Transfer, steady state, deltmx=0.
1., 1., 1e-05, 1., 
** 
** BOUNDARY CONDITIONS
** 
** Name: BC-1 Type: Temperature
*Boundary
Set-2, 11, 11, 10.
** Name: BC-2 Type: Temperature
*Boundary
Set-3, 11, 11, 20.
** 
** OUTPUT REQUESTS
** 
*Restart, write, frequency=0
** 
** FIELD OUTPUT: F-Output-2
** 
*Output, field
*Node Output, variable=PRESELECT
*Element Output, directions=YES
HFL, TEMP
** 
** FIELD OUTPUT: F-Output-1
** 
*Output, field, variable=PRESELECT
*Output, history, frequency=0
*End Step
